BEGIN DIMENSIONS
NROW {{nrow}}
NCOL {{ncol}}
END DIMENSIONS
begin table
{{table}}end table