begin options
{%- if auxiliary is defined -%}  auxiliary {{auxiliary(naux)}}{%- endif -%}
{%- if boundnames is defined -%}  boundnames{%- endif -%}
{%- if print_input is defined -%}  print_input{%- endif -%}
{%- if print_stage is defined -%}  print_stage{%- endif -%}
{%- if print_flows is defined -%}  print_flows{%- endif -%}
{%- if save_flows is defined -%}  save_flows{%- endif -%}
{%- if stage_filerecord is defined -%}  stage fileout {{stagefile}}{%- endif -%}
{%- if budget_filerecord is defined -%}  budget fileout {{budgetfile}}{%- endif -%}
{%- if ts_filerecord is defined -%}  ts6 filein {{ts6_filename}}{%- endif -%}
{%- if obs_filerecord is defined -%}  obs6 filein {{obs6_filename}}{%- endif -%}
{%- if mover is defined -%}  mover{%- endif -%}
{%- if surfdep is defined -%}  surfdep {{surfdep}}{%- endif -%}
{%- if time_conversion is defined -%}  time_conversion {{time_conversion}}{%- endif -%}
{%- if length_conversion is defined -%}  length_conversion {{length_conversion}}{%- endif -%}
end options

begin dimensions
  nlakes {{nlakes}}
  noutlets {{noutlets}}
  ntables {{ntables}}
end dimensions

begin packagedata
{% for n in range(0, nlakes) %}
  {{ lakes[n].number}}  {{ lakes[n].starting_stage }}  {{ lakes[n].boundname }}
{% endfor %}
end packagedata

begin connectiondata
{% for n in range(0, nconnect) %}
  {{connections[n].lake_no}}  {{connections[n].cell_id }} {{ connections[n].connection_type }}  {{ connections[n].bed_leak}} {{connections[n].bottom_elevation  }}  {{ connections[n].c_top_elevation }}  {{connections[n].connection_width  }} {{connections[n].connection_length }}
{% endfor %}
end connectiondata

begin outlets
{% for n in range(0, noutlet) %}
  {{outlets[n].lakein}} {{outlets[n].lakeout}} {{outlets[n].couttype}} {{outlets[n].invert}} {{outlets[n].roughness}} {{outlets[n].width}} {{outlets[n].slope}}
{% endfor %}
end outlets
