begin griddata
  strt {% if layered is sameas true %}layered{% endif %}
    {strt}
end griddata

