begin options
end options

begin griddata
  strt{% if strt_layered %} layered{% endif %}
{% for x in strt %}    {{x}}
{% endfor -%}
end griddata
