begin options
{% if print_input is defined %}  print_input{% endif %}
end options

begin dimensions
  maxhfb {{maxbound}}
end dimensions

{% for i, file in periods.items() %}begin period {{i}}
  open/close {{file}}
end period{% endfor %}