begin options
  scheme {{scheme}}
end options