begin options
  scheme {{scheme}}
{% if ats_percel is defined %}  ats_percel {{ats_percel}}
{% endif -%}
end options