begin options
{% if scheme is defined %}  scheme {{scheme}}
{% endif %}
end options