begin options
{% if XT3D_OFF is defined %} XT3D_OFF
{% endif %}
{%- if XT3D_RHS is defined %} XT3D_RHS
{% endif -%}
end options

begin griddata
  diffc{% if diffc_layered %} layered{% endif %}
{% for x in diffc %}    {{x}}
{% endfor %}
  alh{% if alh_layered %} layered{% endif %}
{% for x in alh %}    {{x}}
{% endfor %}
  ath1{% if ath1_layered %} layered{% endif %}
{% for x in ath1 %}    {{x}}{% endfor %}
{% if alv is defined %}
  alv{% if alv_layered %} layered{% endif %}
{% for x in alv %}    {{x}}
{% endfor -%}{% endif -%}
{% if ath2 is defined %}
  ath2{% if ath2_layered %} layered{% endif %}
{% for x in ath2 %}    {{x}}
{% endfor %}{% endif -%}
{% if atv is defined %}
  atv{% if atv_layered %} layered{% endif %}
{% for x in atv %}    {{x}}
{% endfor %}{% endif -%}
end griddata